/*--------------------------------*- C++ -*----------------------------------*\
| =========                 |                                                 |
| \\      /  F ield         | OpenFOAM: The Open Source CFD Toolbox           |
|  \\    /   O peration     | Version:  v2312                                 |
|   \\  /    A nd           | Website:  www.openfoam.com                      |
|    \\/     M anipulation  |                                                 |
\*---------------------------------------------------------------------------*/
FoamFile
{
    version     2.0;
    format      ascii;
    class       volScalarField;
    object      T;
}
// * * * * * * * * * * * * * * * * * * * * * * * * * * * * * * * * * * * * * //

dimensions      [0 0 0 1 0 0 0];

internalField   uniform 273;

boundaryField
{
    radiator 
    {
        type            fixedGradient;
        gradient        uniform 1000;
    }

    ground
    {
        type            zeroGradient;
    }

    battery
    {
        type            zeroGradient;
    }

    boxWalls // ambient temperature 20C
    {
        type            fixedValue;
        value           uniform 293;
    }
}


// ************************************************************************* //
