/*--------------------------------*- C++ -*----------------------------------*\
| =========                 |                                                 |
| \\      /  F ield         | OpenFOAM: The Open Source CFD Toolbox           |
|  \\    /   O peration     | Version:  2312                                  |
|   \\  /    A nd           | Website:  www.openfoam.com                      |
|    \\/     M anipulation  |                                                 |
\*---------------------------------------------------------------------------*/
FoamFile
{
    version     2.0;
    format      ascii;
    arch        "LSB;label=32;scalar=64";
    class       polyBoundaryMesh;
    location    "constant/polyMesh";
    object      boundary;
}
// * * * * * * * * * * * * * * * * * * * * * * * * * * * * * * * * * * * * * //

4
(
    ground
    {
        type            wall;
        inGroups        1(wall);
        nFaces          384;
        startFace       22592;
    }
    boxWalls
    {
        type            patch;
        nFaces          1984;
        startFace       22976;
    }
    battery
    {
        type            wall;
        inGroups        1(wall);
        nFaces          48;
        startFace       24960;
    }
    radiator
    {
        type            wall;
        inGroups        1(wall);
        nFaces          16;
        startFace       25008;
    }
)

// ************************************************************************* //
