/*--------------------------------*- C++ -*----------------------------------*\
| =========                 |                                                 |
| \\      /  F ield         | OpenFOAM: The Open Source CFD Toolbox           |
|  \\    /   O peration     | Version:  v2312                                 |
|   \\  /    A nd           | Website:  www.openfoam.com                      |
|    \\/     M anipulation  |                                                 |
\*---------------------------------------------------------------------------*/
FoamFile
{
    version     2.0;
    format      ascii;
    class       dictionary;
    object      blockMeshDict;
}
// * * * * * * * * * * * * * * * * * * * * * * * * * * * * * * * * * * * * * //

scale 1;

vertices
(
    // y-axis
    (0   0   0)    // 0
    (0   0.4 0)    // 1
    (0   0.6 0)    // 2
    (0   1   0)    // 3

    // xy-plane
    (0.2 0   0)    // 4
    (0.2 0.4 0)    // 5
    (0.2 0.6 0)    // 6
    (0.2 1   0)    // 7

    // yz-plane
    (0   0   0.244)  // 8
    (0   0.4 0.244)  // 9
    (0   0.6 0.244)  // 10
    (0   1   0.244)  // 11

    // inside line
    (0.2 0   0.244)  // 12
    (0.2 0.4 0.244)  // 13
    (0.2 0.6 0.244)  // 14
    (0.2 1   0.244)  // 15

    // big cube
    (0.5 0   0)  // 16
    (0.5 1   0)  // 17
    (0.5 0   1)  // 18
    (0.5 1   1)  // 19
    (0   0   1)  // 20
    (0   1   1)  // 21
    (0.2 0   1)  // 22
    (0.2 1   1)  // 23
    (0.2 0.4 1)  // 24
    (0.2 0.6 1)  // 25
    (0   0.4 1)  // 26
    (0   0.6 1)  // 27
    (0.5 0.4 1)  // 28
    (0.5 0.6 1)  // 29
    (0.5 0.4 0)  // 30
    (0.5 0.6 0)  // 31
    (0.5 0   0.244) // 32
    (0.5 0.4 0.244) // 33
    (0.5 0.6 0.244) // 34
    (0.5 1   0.244) // 35
);

blocks
(
    // Origin rectangle
    hex (0 4 5 1 8 12 13 9) (8 16 8) simpleGrading (1 1 1)

    // Cutout region
    // hex (1 5 6 2 9 13 14 10) (8 16 8) simpleGrading (1 1 1)

    // Rectangle far side from origin
    hex (2 6 7 3 10 14 15 11) (8 16 8) simpleGrading (1 1 1)

    // Top rectangle
    hex (8 12 13 9 20 22 24 26) (8 16 32) simpleGrading (1 1 1)
    hex (9 13 14 10 26 24 25 27) (8 8 32) simpleGrading (1 1 1)
    hex (10 14 15 11 27 25 23 21) (8 16 32) simpleGrading (1 1 1)

    // Big cube
    hex (4 16 30 5 12 32 33 13) (12 16 8) simpleGrading (1 1 1)
    hex (12 32 33 13 22 18 28 24) (12 16 32) simpleGrading (1 1 1)
    hex (5 30 31 6 13 33 34 14) (12 8 8) simpleGrading (1 1 1)
    hex (13 33 34 14 24 28 29 25) (12 8 32) simpleGrading (1 1 1)
    hex (6 31 17 7 14 34 35 15) (12 16 8) simpleGrading (1 1 1)
    hex (14 34 35 15 25 29 19 23) (12 16 32) simpleGrading (1 1 1)
);

edges
(
);

boundary
(
    ground
    {
        type wall;
        faces
        (
            (0 1 5 4)
            (2 3 7 6)
            (4 5 30 16)
            (5 6 31 30)
            (6 7 17 31)
        );
    }

    boxWalls
    {
        type wall;
        faces
        (
            // xz-plane
            (0 4 12 8)
            (8 12 22 20)
            (4 16 32 12)
            (12 32 18 22)

            (3 11 15 7)
            (11 21 23 15)
            (7 15 35 17)
            (15 23 19 35)

            // yz-plane
            (0 8 9 1)
            (2 10 11 3)
            (8 20 26 9)
            (9 26 27 10)
            (10 27 21 11)

            (16 30 33 32)
            (32 33 28 18)
            (30 31 34 33)
            (33 34 29 28)
            (31 17 35 34)
            (34 35 19 29)

            // xy-plane
            (20 22 24 26)
            (22 18 28 24)
            (26 24 25 27)
            (27 25 23 21)
            (24 28 29 25)
            (25 29 19 23)
        );
    }

    battery
    {
        type wall;
        faces
        (
            (1 9 13 5)
            (2 6 14 10)
            (9 10 14 13)
        );
    }

    radiator
    {
       type wall;
       faces 
       (
           (5 13 14 6)
       );
   } 
);

// ************************************************************************* //

